// This is a dynamic version of the IEEE 123 Node Test System

clock {
	timezone "PST+8PDT";
	starttime '2001-08-01 12:00:00 PST';
	stoptime '2001-08-01 12:03:00 PST';
}

#set suppress_repeat_messages=1
#set relax_naming_rules=1;
#set profiler=1
#set pauseatexit=1
#define rotor_convergence=0.00000000000001
#set double_format=%+.12lg
#set complex_format=%+.12lg%+.12lg%c
#set complex_output_format=POLAR_DEG

//Deltamode declarations - global values
#set deltamode_timestep=100000000		//100 ms
#set deltamode_maximumtime=180000000000	//3 minute
#set deltamode_iteration_limit=10		//Iteration limit
#set maximum_synctime=6400


module tape;
module reliability {
	enable_subsecond_models true;
	maximum_event_length 1800000;	//Maximum length of events in seconds (manual events are excluded from this limit)
	report_event_log false;
}

module powerflow {
	enable_subsecond_models true;
	deltamode_timestep 1 ms;	//10 ms
	solver_method NR;
	all_powerflow_delta true;
	lu_solver "KLU";
	line_capacitance true;
	//enable_inrush TRUE;
};

module connection;
object helics_msg {
    name GLD;
    message_type JSON;
    publish_period 1;
    configure "config/gridlabd_config.json";
}

module generators {
	enable_subsecond_models true;
	deltamode_timestep 1 ms;
}

 module climate;

object climate {
     name "WA-Yakima";
     tmyfile "WA-Yakima.tmy2";
	 interpolate NONE;
};


// DG #1 At source node
object diesel_dg {
    flags DELTAMODE;
	name Gen1;
	parent node_150;
	Rated_V 4156; //Line-to-Line value
	Rated_VA 10000000; // Defaults to 10 MVA
	overload_limit 1.00;
	power_out_A 30000+3000j;
	power_out_B 30000+3000j;
	power_out_C 30000+3000j;
	Gen_type DYN_SYNCHRONOUS;
	rotor_speed_convergence ${rotor_convergence};
	inertia 0.553286;
	damping 0.0;
	Ra .006543;
	Ta 0.05;
	Xl 0.066;
	Xd 1.77;
	Xq 1.052;
	Xdp 0.128;
	Xqp 0.2232003883;
	Xdpp 0.107;
	Xqpp 0.189;
	Tdop 1.748986;
	Tqop 0.448458;
	Tdopp 0.017013;
	Tqopp 0.016817;
	
    Exciter_type SEXS;
	TA 0.01;
	TB 0.02;
	TC 0.08;	
    KA 50;
	Vset 1.0;


	Governor_type GGOV1;
	
	//Toggle low-value-select items
	GGOV1_Load_Limit_enable false;
	GGOV1_Acceleration_Limit_enable false;
	GGOV1_PID_enable true;
	
	// //Default properties:
	GGOV1_R 0.03; // Permanent droop, p.u.
	GGOV1_Rselect 0; // Feedback signal for droop, = 1 selected electrical power, = 0 none (isochronous governor), = -1 fuel valve stroke ( true stroke),= -2 governor output ( requested stroke)
	
	//GGOV1_Rselect 1; // Feedback signal for droop, = 1 selected electrical power, = 0 none (isochronous governor), = -1 fuel valve stroke ( true stroke),= -2 governor output ( requested stroke)
	GGOV1_Tpelec 1.0; // Electrical power transducer time constant, sec. (>0.)
	GGOV1_maxerr 0.05;//0.05; // Maximum value for speed error signal
	GGOV1_minerr -0.05;//-0.05; // Minimum value for speed error signal
	GGOV1_Kpgov 2.5;// 0.8; // Governor proportional gain
	GGOV1_Kigov 6.5;// 0.2; // Governor integral gain
	GGOV1_Kdgov 0.0; // Governor derivative gain
	GGOV1_Tdgov 1.0; // Governor derivative controller time constant, sec.
	GGOV1_vmax 1.0;//1.0; // Maximum valve position limit
	GGOV1_vmin 0.15; // Minimum valve position limit
	GGOV1_Tact 0.05;//0.5; // Actuator time constant
	GGOV1_Kturb 1.5; // Turbine gain (>0.)
	GGOV1_wfnl 0.2;//0.2; // No load fuel flow, p.u
	GGOV1_Tb 0.01;//0.1; // Turbine lag time constant, sec. (>0.)
	GGOV1_Tc 0.2; // Turbine lead time constant, sec.
	GGOV1_Fuel_lag 1; // Switch for fuel source characteristic, = 0 for fuel flow independent of speed, = 1 fuel flow proportional to speed
	GGOV1_Teng 0.0; // Transport lag time constant for diesel engine
	GGOV1_Tfload 3.0; // Load Limiter time constant, sec. (>0.)
	GGOV1_Kpload 2.0; // Load limiter proportional gain for PI controller
	GGOV1_Kiload 0.67; // Load limiter integral gain for PI controller
	GGOV1_Ldref 1.0; // Load limiter reference value p.u.
	GGOV1_Dm 0.0; // Speed sensitivity coefficient, p.u.
	GGOV1_ropen 050; // Maximum valve opening rate, p.u./sec.
	GGOV1_rclose -050; // Minimum valve closing rate, p.u./sec.
	GGOV1_Kimw 0.0;//0.002; // Power controller (reset) gain
	GGOV1_Pmwset 3.0; // Power controller setpoint, MW
	GGOV1_aset 0.01; // Acceleration limiter setpoint, p.u./sec.
	GGOV1_Ka 10.0; // Acceleration limiter Gain
	GGOV1_Ta 0.1; // Acceleration limiter time constant, sec. (>0.)
	GGOV1_db 0.0; // Speed governor dead band
	GGOV1_Tsa 4.0; // Temperature detection lead time constant, sec.
	GGOV1_Tsb 5.0; // Temperature detection lag time constant, sec.
	

}






// DG #2 
object diesel_dg {
    flags DELTAMODE;
	name Gen2;
	parent load_50;
	Rated_V 4156; //Line-to-Line value
	Rated_VA 1000000; // Defaults to 10 MVA
	overload_limit 1.00;
	power_out_A 25000+8333j;//75000+25000j;
	power_out_B 25000+8333j;//75000+25000j;
	power_out_C 25000+8333j;//75000+25000j;
	Gen_type DYN_SYNCHRONOUS;
	rotor_speed_convergence ${rotor_convergence};
	inertia 0.553286;
	damping 0.0;
	Ra .006543;
	Ta 0.05;
	Xl 0.066;
	Xd 1.77;
	Xq 1.052;
	Xdp 0.128;
	Xqp 0.2232003883;
	Xdpp 0.107;
	Xqpp 0.189;
	Tdop 1.748986;
	Tqop 0.448458;
	Tdopp 0.017013;
	Tqopp 0.016817;
	
	Exciter_type SEXS;
	SEXS_mode Q_V_DROOP;
	SEXS_Q_V_droop 0.05;
	TA 0.01;
	TB 0.02;
	TC 0.08;	
    KA 50;
	Vset 1.0;


	Governor_type GGOV1;
	
	//Toggle low-value-select items
	GGOV1_Load_Limit_enable false;
	GGOV1_Acceleration_Limit_enable false;
	GGOV1_PID_enable true;
	
	// //Default properties:
	GGOV1_R 0.03; // Permanent droop, p.u.
	GGOV1_Rselect 1; // Feedback signal for droop, = 1 selected electrical power, = 0 none (isochronous governor), = -1 fuel valve stroke ( true stroke),= -2 governor output ( requested stroke)
	
	//GGOV1_Rselect 1; // Feedback signal for droop, = 1 selected electrical power, = 0 none (isochronous governor), = -1 fuel valve stroke ( true stroke),= -2 governor output ( requested stroke)
	GGOV1_Tpelec 1.0; // Electrical power transducer time constant, sec. (>0.)
	GGOV1_maxerr 0.05;//0.05; // Maximum value for speed error signal
	GGOV1_minerr -0.05;//-0.05; // Minimum value for speed error signal
	GGOV1_Kpgov 2.5;// 0.8; // Governor proportional gain
	GGOV1_Kigov 6.5;// 0.2; // Governor integral gain
	GGOV1_Kdgov 0.0; // Governor derivative gain
	GGOV1_Tdgov 1.0; // Governor derivative controller time constant, sec.
	GGOV1_vmax 1.0;//1.0; // Maximum valve position limit
	GGOV1_vmin 0.15; // Minimum valve position limit
	GGOV1_Tact 0.05;//0.5; // Actuator time constant
	GGOV1_Kturb 1.5; // Turbine gain (>0.)
	GGOV1_wfnl 0.2;//0.2; // No load fuel flow, p.u
	GGOV1_Tb 0.01;//0.1; // Turbine lag time constant, sec. (>0.)
	GGOV1_Tc 0.2; // Turbine lead time constant, sec.
	GGOV1_Fuel_lag 1; // Switch for fuel source characteristic, = 0 for fuel flow independent of speed, = 1 fuel flow proportional to speed
	GGOV1_Teng 0.0; // Transport lag time constant for diesel engine
	GGOV1_Tfload 3.0; // Load Limiter time constant, sec. (>0.)
	GGOV1_Kpload 2.0; // Load limiter proportional gain for PI controller
	GGOV1_Kiload 0.67; // Load limiter integral gain for PI controller
	GGOV1_Ldref 1.0; // Load limiter reference value p.u.
	GGOV1_Dm 0.0; // Speed sensitivity coefficient, p.u.
	GGOV1_ropen 050; // Maximum valve opening rate, p.u./sec.
	GGOV1_rclose -050; // Minimum valve closing rate, p.u./sec.
	GGOV1_Kimw 0.0;//0.002; // Power controller (reset) gain
	GGOV1_Pmwset 3.0; // Power controller setpoint, MW
	GGOV1_aset 0.01; // Acceleration limiter setpoint, p.u./sec.
	GGOV1_Ka 10.0; // Acceleration limiter Gain
	GGOV1_Ta 0.1; // Acceleration limiter time constant, sec. (>0.)
	GGOV1_db 0.0; // Speed governor dead band
	GGOV1_Tsa 4.0; // Temperature detection lead time constant, sec.
	GGOV1_Tsb 5.0; // Temperature detection lag time constant, sec.
	
}


// DG #3 /////////////////////////////////////////////////////////////////////
//////////////////////////////////////////////////////////////////////////////

object diesel_dg {
    flags DELTAMODE;
	name Gen3;
	parent load_100; //node_1001;
	Rated_V 4156; //Line-to-Line value
	Rated_VA 450000; // 300000 for ring //150000; // 450000// Defaults to 10 MVA
	overload_limit 1.00;
	power_out_A 50000+16667j; //20000+16667j; // 50000
	power_out_B 50000+16667j; //20000+16667j; // 50000
	power_out_C 50000+16667j; //20000+16667j; // 50000
	Gen_type DYN_SYNCHRONOUS;
	rotor_speed_convergence ${rotor_convergence};
	inertia 0.553286;
	damping 0;
	Ra .006543;
	Ta 0.06;
	Xl 0.016;
	Xd 1.67;
	Xq 1.082;
	Xdp 0.148;
	Xqp 0.2432003883;
	Xdpp 0.107;
	Xqpp 0.189;
	Tdop 1.748986;
	Tqop 0.448458;
	Tdopp 0.017013;
	Tqopp 0.016817;
	
	Exciter_type SEXS;
	SEXS_mode Q_V_DROOP;
	SEXS_Q_V_droop 0.05;
	TA 0.01;
	TB 0.03;
	TC 0.07;	
    KA 45;
	Vset 1.0;
        // Qref 2.0;
	// was 1.0
	Governor_type GGOV1;
	// Governor_type DEGOV1;

	//Toggle low-value-select items
	GGOV1_Load_Limit_enable false;
	GGOV1_Acceleration_Limit_enable false;
	GGOV1_PID_enable true;
	P_f_droop_setting_mode PSET_MODE;
	
	// //Default properties:
	GGOV1_R 0.03; // Permanent droop, p.u.
	GGOV1_Rselect 1; // Feedback signal for droop, = 1 selected electrical power, = 0 none (isochronous governor), = -1 fuel valve stroke ( true stroke),= -2 governor output ( requested stroke)
	
	//GGOV1_Rselect 1; // Feedback signal for droop, = 1 selected electrical power, = 0 none (isochronous governor), = -1 fuel valve stroke ( true stroke),= -2 governor output ( requested stroke)
	GGOV1_Tpelec 1.0; // Electrical power transducer time constant, sec. (>0.)
	GGOV1_maxerr 0.05;//0.05; // Maximum value for speed error signal
	GGOV1_minerr -0.05;//-0.05; // Minimum value for speed error signal
	GGOV1_Kpgov 2.5;// 0.8; // Governor proportional gain
	GGOV1_Kigov 6.5;// 0.2; // Governor integral gain
	GGOV1_Kdgov 0.0; // Governor derivative gain
	GGOV1_Tdgov 1.0; // Governor derivative controller time constant, sec.
	GGOV1_vmax 1.0;//1.0; // Maximum valve position limit
	GGOV1_vmin 0.15; // Minimum valve position limit
	GGOV1_Tact 0.05;//0.5; // Actuator time constant
	GGOV1_Kturb 1.5; // Turbine gain (>0.)
	GGOV1_wfnl 0.2;//0.2; // No load fuel flow, p.u
	GGOV1_Tb 0.01;//0.1; // Turbine lag time constant, sec. (>0.)
	GGOV1_Tc 0.0; // Turbine lead time constant, sec.
	GGOV1_Fuel_lag 1; // Switch for fuel source characteristic, = 0 for fuel flow independent of speed, = 1 fuel flow proportional to speed
	GGOV1_Teng 0.0; // Transport lag time constant for diesel engine
	GGOV1_Tfload 3.0; // Load Limiter time constant, sec. (>0.)
	GGOV1_Kpload 2.0; // Load limiter proportional gain for PI controller
	GGOV1_Kiload 0.67; // Load limiter integral gain for PI controller
	GGOV1_Ldref 1.0; // Load limiter reference value p.u.
	GGOV1_Dm 0.0; // Speed sensitivity coefficient, p.u.
	GGOV1_ropen 050; // Maximum valve opening rate, p.u./sec.
	GGOV1_rclose -050; // Minimum valve closing rate, p.u./sec.
	GGOV1_Kimw 0.0;//0.002; // Power controller (reset) gain
	GGOV1_Pmwset 3.0; // Power controller setpoint, MW
	GGOV1_aset 0.01; // Acceleration limiter setpoint, p.u./sec.
	GGOV1_Ka 10.0; // Acceleration limiter Gain
	GGOV1_Ta 0.1; // Acceleration limiter time constant, sec. (>0.)
	GGOV1_db 0.0; // Speed governor dead band
	GGOV1_Tsa 4.0; // Temperature detection lead time constant, sec.
	GGOV1_Tsb 5.0; // Temperature detection lag time constant, sec.


}


// DG #4 /////////////////////////////////////////////////////////////////////
//////////////////////////////////////////////////////////////////////////////
object diesel_dg {
	flags DELTAMODE;
	name Gen4;
	parent node_300;
	Rated_V 4156; //Line-to-Line value
	Rated_VA 600000;//3500000; // Defaults to 10 MVA
	overload_limit 1.00;
	power_out_A 50000+16667j;
	power_out_B 50000+16667j;
	power_out_C 50000+16667j;
	Gen_type DYN_SYNCHRONOUS;
	rotor_speed_convergence ${rotor_convergence};
	inertia 0.553286;
	damping 0.0;
	Ra .006743;
	Ta 0.062;
	Xl 0.074;
	Xd 1.69;
	Xq 1.084;
	Xdp 0.143;
	Xqp 0.2232003883;
	Xdpp 0.117;
	Xqpp 0.159;
	Tdop 1.648986;
	Tqop 0.448458;
	Tdopp 0.013013;
	Tqopp 0.018817;
	
	SEXS_mode Q_V_DROOP;
	SEXS_Q_V_droop 0.05;
	TA 0.01;
	TB 0.03;
	TC 0.07;	
    KA 45;
    Vset 1.0;

	Governor_type GGOV1;
	
    // Properties:
	GGOV1_R 0.03; // Permanent droop, p.u.
	GGOV1_Rselect 1; // Feedback signal for droop, = 1 selected electrical power, = 0 none (isochronous governor), = -1 fuel valve stroke ( true stroke),= -2 governor output ( requested stroke)
	
	GGOV1_Tpelec 1.0; // Electrical power transducer time constant, sec. (>0.)
	GGOV1_maxerr 0.05;//0.05; // Maximum value for speed error signal
	GGOV1_minerr -0.05;//-0.05; // Minimum value for speed error signal
	GGOV1_Kpgov 2.5;// 0.8; // Governor proportional gain
	GGOV1_Kigov 6.0;// 0.2; // Governor integral gain
	GGOV1_Kdgov 0.0; // Governor derivative gain
	GGOV1_Tdgov 1.0; // Governor derivative controller time constant, sec.
	GGOV1_vmax 1.0;//1.0; // Maximum valve position limit
	GGOV1_vmin 0.15; // Minimum valve position limit
	GGOV1_Tact 0.05;//0.5; // Actuator time constant
	GGOV1_Kturb 1.5; // Turbine gain (>0.)
	GGOV1_wfnl 0.2;//0.2; // No load fuel flow, p.u
	GGOV1_Tb 0.01;//0.1; // Turbine lag time constant, sec. (>0.)
	GGOV1_Tc 0.0; // Turbine lead time constant, sec.
	GGOV1_Fuel_lag 1; // Switch for fuel source characteristic, = 0 for fuel flow independent of speed, = 1 fuel flow proportional to speed
	GGOV1_Teng 0.0; // Transport lag time constant for diesel engine
	GGOV1_Tfload 3.0; // Load Limiter time constant, sec. (>0.)
	GGOV1_Kpload 2.0; // Load limiter proportional gain for PI controller
	GGOV1_Kiload 0.67; // Load limiter integral gain for PI controller
	GGOV1_Ldref 1.0; // Load limiter reference value p.u.
	GGOV1_Dm 0.0; // Speed sensitivity coefficient, p.u.
	GGOV1_ropen 050; // Maximum valve opening rate, p.u./sec.
	GGOV1_rclose -050; // Minimum valve closing rate, p.u./sec.
	GGOV1_Kimw 0.0;//0.002; // Power controller (reset) gain
	GGOV1_Pmwset 3.0; // Power controller setpoint, MW
	GGOV1_aset 0.01; // Acceleration limiter setpoint, p.u./sec.
	GGOV1_Ka 10.0; // Acceleration limiter Gain
	GGOV1_Ta 0.1; // Acceleration limiter time constant, sec. (>0.)
	GGOV1_db 0.0; // Speed governor dead band
	GGOV1_Tsa 4.0; // Temperature detection lead time constant, sec.
	GGOV1_Tsb 5.0; // Temperature detection lag time constant, sec. 


}


//////////////////////////////////// Inverter #1 M1 GFL/////////////////////////////////////////

object inverter_dyn {
	name trip_shad_inv1;
	parent load_42;
	flags DELTAMODE;
	rated_power 600 kW;	
	control_mode GFL_CURRENT_SOURCE;
	grid_following_mode POSITIVE_SEQUENCE;	
	
	frequency_watt false;  // Disable the frequency support function
	volt_var false;  // Disable the voltage support function

	// Grid following values
	Pref 450000;
	Qref 0.0;
	
	kpPLL  50;  // proportional gain of PLL
	kiPLL  900;  // Integral gain of PLL
	
	// Frequency Watt
	Tpf 0.50;   // time constant of the power loop, second
	Tff 0.01;  // time constant of the frequency measurement filter, second
	Rp 0.05;  // frequency-watt droop  5%
	
	// Volt-VAR
	Rq 0.05; // volt-var droop 5%
	Tqf 0.2; // time constant of the reactive power loop, second
	Tvf 0.05; // time constat of the voltage measurement loop, second
	
	//enable_1547_checks true;
	//IEEE_1547_version NONE;//IEEE1547A; 
	//reconnect_time 300 s;	//Set for testing - I don't want to wait 5 minutes

	
	//1547-2018 defaults for triggering - so people can change them - will get adjusted to 1547 in init, if desired
	//over_freq_high_cutout  62.0;	//OF2 set point for IEEE 1547-2018
	//over_freq_high_disconnect_time  0.16;		//OF2 clearing time for IEEE1547-2018

	//over_freq_low_cutout  61.2;		//OF1 set point for IEEE 1547-2018
	//over_freq_low_disconnect_time  300.0;			//OF1 clearing time for IEEE 1547-2018

	//under_freq_high_cutout  58.5;	//UF2 set point for IEEE 1547-2018
	//under_freq_high_disconnect_time  300.0;		//UF2 clearing time for IEEE1547-2018

	//under_freq_low_cutout  56.5;		//UF1 set point for IEEE 1547-2018
	//under_freq_low_disconnect_time  0.16;		//UF1 clearing time for IEEE 1547-2018
	
	
	//Voltage set points - 1547a defaults
	//under_voltage_low_cutout  0.45;	//Lowest voltage threshold for undervoltage
	//under_voltage_middle_cutout  0.60;	//Middle-lowest voltage threshold for undervoltage
	//under_voltage_high_cutout  0.88;		//High value of low voltage threshold for undervoltage
	//over_voltage_low_cutout  1.10;				//Lowest voltage value for overvoltage
	//over_voltage_high_cutout  1.20;				//High voltage value for overvoltage
	//under_voltage_low_disconnect_time  0.16;				//Lowest voltage clearing time for undervoltage
	//under_voltage_middle_disconnect_time  1.0;				//Middle-lowest voltage clearing time for undervoltage
	//under_voltage_high_disconnect_time  2.0;					//Highest voltage clearing time for undervoltage
	//over_voltage_low_disconnect_time  1.0;					//Lowest voltage clearing time for overvoltage
	//over_voltage_high_disconnect_time  0.16;					//Highest voltage clearing time for overvoltage


};


//////////////////////////////////// Inverter #1 M2 GFL/////////////////////////////////////////


object inverter_dyn {
	name trip_shad_inv2;
	parent node_101;
	flags DELTAMODE;
	rated_power 180 kW;	
	control_mode GFL_CURRENT_SOURCE;
	grid_following_mode POSITIVE_SEQUENCE;	
	
	frequency_watt false;  // Disable the frequency support function
	volt_var false;  // Disable the voltage support function

	// Grid following values
	Pref 126000;
	Qref 0.0;
	
	kpPLL  50;  // proportional gain of PLL
	kiPLL  900;  // Integral gain of PLL
	
	// Frequency Watt
	Tpf 0.50;   // time constant of the power loop, second
	Tff 0.01;  // time constant of the frequency measurement filter, second
	Rp 0.05;  // frequency-watt droop  5%
	
	// Volt-VAR
	Rq 0.05; // volt-var droop 5%
	Tqf 0.2; // time constant of the reactive power loop, second
	Tvf 0.05; // time constat of the voltage measurement loop, second
	
	//enable_1547_checks true;
	//IEEE_1547_version NONE;//IEEE1547A; 
	//reconnect_time 300 s;	//Set for testing - I don't want to wait 5 minutes
	
	
	//1547-2018 defaults for triggering - so people can change them - will get adjusted to 1547 in init, if desired
	//over_freq_high_cutout  62.0;	//OF2 set point for IEEE 1547-2018
	//over_freq_high_disconnect_time  0.16;		//OF2 clearing time for IEEE1547-2018

	//over_freq_low_cutout  61.2;		//OF1 set point for IEEE 1547-2018
	//over_freq_low_disconnect_time  300.0;			//OF1 clearing time for IEEE 1547-2018

	//under_freq_high_cutout  58.5;	//UF2 set point for IEEE 1547-2018
	//under_freq_high_disconnect_time  300.0;		//UF2 clearing time for IEEE1547-2018

	//under_freq_low_cutout  56.5;		//UF1 set point for IEEE 1547-2018
	//under_freq_low_disconnect_time  0.16;		//UF1 clearing time for IEEE 1547-2018
	
	
	//Voltage set points - 1547a defaults
	//under_voltage_low_cutout  0.45;	//Lowest voltage threshold for undervoltage
	//under_voltage_middle_cutout  0.60;	//Middle-lowest voltage threshold for undervoltage
	//under_voltage_high_cutout  0.88;		//High value of low voltage threshold for undervoltage
	//over_voltage_low_cutout  1.10;				//Lowest voltage value for overvoltage
	//over_voltage_high_cutout  1.20;				//High voltage value for overvoltage
	//under_voltage_low_disconnect_time  0.16;				//Lowest voltage clearing time for undervoltage
	//under_voltage_middle_disconnect_time  1.0;				//Middle-lowest voltage clearing time for undervoltage
	//under_voltage_high_disconnect_time  2.0;					//Highest voltage clearing time for undervoltage
	//over_voltage_low_disconnect_time  1.0;					//Lowest voltage clearing time for overvoltage
	//over_voltage_high_disconnect_time  0.16;					//Highest voltage clearing time for overvoltage

};


//////////////////////////////////// Inverter #1 M3 GFL /////////////////////////////////////////


object inverter_dyn {
	name trip_shad_inv3;
	parent load_761;
	rated_power 120 kW;	
	flags DELTAMODE;
	control_mode GFL_CURRENT_SOURCE;
	grid_following_mode POSITIVE_SEQUENCE;	
	
	frequency_watt false;  // Disable the frequency support function
	volt_var false;  // Disable the voltage support function

	// Grid following values
	Pref 84000;
	Qref 0.0;
	
	kpPLL  50;  // proportional gain of PLL
	kiPLL  900;  // Integral gain of PLL
	
	// Frequency Watt
	Tpf 0.50;   // time constant of the power loop, second
	Tff 0.01;  // time constant of the frequency measurement filter, second
	Rp 0.05;  // frequency-watt droop  5%
	
	// Volt-VAR
	Rq 0.05; // volt-var droop 5%
	Tqf 0.2; // time constant of the reactive power loop, second
	Tvf 0.05; // time constat of the voltage measurement loop, second
	
	//enable_1547_checks true;
	//IEEE_1547_version NONE; 
	//reconnect_time 300 s;	//Set for testing - I don't want to wait 5 minutes
	

	//1547-2018 defaults for triggering - so people can change them - will get adjusted to 1547 in init, if desired
	//over_freq_high_cutout  62.0;	//OF2 set point for IEEE 1547-2018
	//over_freq_high_disconnect_time  0.16;		//OF2 clearing time for IEEE1547-2018

	//over_freq_low_cutout  61.2;		//OF1 set point for IEEE 1547-2018
	//over_freq_low_disconnect_time  300.0;			//OF1 clearing time for IEEE 1547-2018

	//under_freq_high_cutout  58.5;	//UF2 set point for IEEE 1547-2018
	//under_freq_high_disconnect_time  300.0;		//UF2 clearing time for IEEE1547-2018

	//under_freq_low_cutout  56.5;		//UF1 set point for IEEE 1547-2018
	//under_freq_low_disconnect_time  0.16;		//UF1 clearing time for IEEE 1547-2018
	
	
	//Voltage set points - 1547a defaults
	//under_voltage_low_cutout  0.45;	//Lowest voltage threshold for undervoltage
	//under_voltage_middle_cutout  0.60;	//Middle-lowest voltage threshold for undervoltage
	//under_voltage_high_cutout  0.88;		//High value of low voltage threshold for undervoltage
	//over_voltage_low_cutout  1.10;				//Lowest voltage value for overvoltage
	//over_voltage_high_cutout  1.20;				//High voltage value for overvoltage
	//under_voltage_low_disconnect_time  0.16;				//Lowest voltage clearing time for undervoltage
	//under_voltage_middle_disconnect_time  1.0;				//Middle-lowest voltage clearing time for undervoltage
	//under_voltage_high_disconnect_time  2.0;					//Highest voltage clearing time for undervoltage
	//over_voltage_low_disconnect_time  1.0;					//Lowest voltage clearing time for overvoltage
	//over_voltage_high_disconnect_time  0.16;					//Highest voltage clearing time for overvoltage

};

//////////////////////////////////// Inverter #2 M1 GFM /////////////////////////////////////////


object inverter_dyn {
	name trip_shad_inv4;
	parent load_51;
	flags DELTAMODE;
	rated_power 400 kW;	
	control_mode GRID_FORMING;//FL_CURRENT_SOURCE;
	

	Pref 210000;
	Qref 0.0;
	
	Rfilter 0.0025;
	Xfilter 0.05;
	
	mp 3.77;  // 3.77 represents 1% droop.
    kppmax 10;
	kipmax 20;
	Pmax 1.2;
	Pmin 0;
	
	mq 0.05; // 0.05 represents 5% droop
};

//////////////////////////////////// Inverter #2 M2 GFM /////////////////////////////////////////


object inverter_dyn {
	name trip_shad_inv5;
	parent node_105;
	flags DELTAMODE;
	rated_power 600 kW;	
	control_mode GRID_FORMING;//FL_CURRENT_SOURCE;
	

	Pref 300000;
	Qref 0.0;
	
	Rfilter 0.0025;
	Xfilter 0.05;
	
	mp 3.77;  // 3.77 represents 1% droop.
    kppmax 10;
	kipmax 20;
	Pmax 1.2;
	Pmin 0;
	
	mq 0.05; // 0.05 represents 5% droop
};

//////////////////////////////////// Inverter #2 M3 GFM /////////////////////////////////////////


object inverter_dyn {
	name trip_shad_inv6;
	parent load_80;
	flags DELTAMODE;
	rated_power 100 kW;	
	control_mode GRID_FORMING;//FL_CURRENT_SOURCE;
	

	Pref 70000;
	Qref 0.0;
	
	Rfilter 0.0025;
	Xfilter 0.05;
	
	mp 3.77;  // 3.77 represents 1% droop.
    kppmax 10;
	kipmax 20;
	Pmax 1.2;
	Pmin 0;
	
	mq 0.05; // 0.05 represents 5% droop
};




// XXXXXXXXXXXXXXXXXXXXXXXXXXXXXXXXXXXXXXXXXXXXXXXXX
// System Recorders
// XXXXXXXXXXXXXXXXXXXXXXXXXXXXXXXXXXXXXXXXXXXXXXXXX

// This player kicks the system into delta mode early so that all transition transients can settle before the scenario transients are triggered
object player {
	name recorder_trigger;
	parent node_150;
	file trigger.player;
	property nominal_voltage;
	flags DELTAMODE;
}

object recorder {
    name recorder_V_node_151;
	parent node_151;
    flags DELTAMODE;
    file "pow/Voltage_151.csv";
    interval 1;
    limit 10000000;
    property voltage_A.real,voltage_A.imag,voltage_B.real,voltage_B.imag,voltage_C.real,voltage_C.imag;
};



// XXXXXXXXXXXXXXXXXXXXXXXXXXXXXXXXXXXXXXXXXXXXXXXXX
// Diesel Recorders
// XXXXXXXXXXXXXXXXXXXXXXXXXXXXXXXXXXXXXXXXXXXXXXXXX
object recorder {
	name recorder_Gen_1;
	parent Gen1;
	property rotor_speed,rotor_angle,flux1d,flux2q,EpRotated,VintRotated,Eint_A,Eint_B,Eint_C,Irotated,pwr_electric.real,pwr_electric.imag,pwr_mech,torque_mech,torque_elec;
	flags DELTAMODE;
	//interval -1;
	interval 1;
	file "gen/Gen_1_Speed.csv";
};


object recorder {
	name recorder_Gen_2;
	parent Gen2;
	property rotor_speed,rotor_angle,flux1d,flux2q,EpRotated,VintRotated,Eint_A,Eint_B,Eint_C,Irotated,pwr_electric.real,pwr_electric.imag,pwr_mech,torque_mech,torque_elec;
	flags DELTAMODE;
	//interval -1;
	interval 1;
	file "gen/Gen_2_Speed.csv";
};
	

object recorder {
	name recorder_Gen_3;
	parent Gen3;
	property rotor_speed,rotor_angle,flux1d,flux2q,EpRotated,VintRotated,Eint_A,Eint_B,Eint_C,Irotated,pwr_electric.real,pwr_electric.imag,pwr_mech,torque_mech,torque_elec;
	flags DELTAMODE;
	//interval -1;
	interval 1;
	file "gen/Gen_3_Speed.csv";
};

object recorder {
	name recorder_Gen_4;
	parent Gen4;
	property rotor_speed,rotor_angle,flux1d,flux2q,EpRotated,VintRotated,Eint_A,Eint_B,Eint_C,Irotated,pwr_electric.real,pwr_electric.imag,pwr_mech,torque_mech,torque_elec;
	flags DELTAMODE;
	//interval -1;
	interval 1;
	file "gen/Gen_4_Speed.csv";
};
	

// XXXXXXXXXXXXXXXXXXXXXXXXXXXXXXXXXXXXXXXXXXXXXXXXX
// Inverter Recorders
// XXXXXXXXXXXXXXXXXXXXXXXXXXXXXXXXXXXXXXXXXXXXXXXXX


object recorder {
	name recorder_INV_1;
	parent trip_shad_inv1;
	property VA_Out.real,VA_Out.imag,V_In,VA_Out,Pref,Qref; //,V_In,VA_Out;
	//property VA_Out.real,VA_Out.imag,IEEE_1547_trip_method,Pref,Qref,V_In,VA_Out;
	interval 1;
	flags DELTAMODE;
	file "inverter/Inverter_#1_MG1.csv";
};

object recorder {
	name recorder_test_Vinv1;
	parent load_42;
	property voltage_A, voltage_B, voltage_C; 
        //remove Qref above if issue arrises
	flags DELTAMODE;
	interval 1;
	file "inverter/Inv_1_load_42.csv";
};


object recorder {
	name recorder_INV_2;
	parent trip_shad_inv2;
	property VA_Out.real,VA_Out.imag,Pref,Qref;
	interval 1;
	flags DELTAMODE;
	file "inverter/Inverter_#2_MG1.csv";
};

object recorder {
	name recorder_INV_3;
	parent trip_shad_inv3;
	property VA_Out.real,VA_Out.imag,Pref,Qref;
	interval 1;
	flags DELTAMODE;
	file "inverter/Inverter_#3_MG2.csv";
};

object recorder {
	name recorder_INV_4;
	parent trip_shad_inv4;
	property VA_Out.real,VA_Out.imag,V_In,VA_Out,Pref,Qref;
	interval 1;
	flags DELTAMODE;
	file "inverter/Inverter_#4_MG2.csv";
};



// XXXXXXXXXXXXXXXXXXXXXXXXXXXXXXXXXXXXXXXXXXXXXXXXX
// Microgrid Freequency Values
// XXXXXXXXXXXXXXXXXXXXXXXXXXXXXXXXXXXXXXXXXXXXXXXXX

object recorder {
	name recorder_MG_1_freq;
	parent node_150;
	property "GFA_status,measured_frequency";
	interval 1;
	flags DELTAMODE;
	file "gen/MG_1_GFA_status.csv";
};

object recorder {
	name recorder_MG_2_freq;
	parent load_50;
	property "GFA_status,measured_frequency";
	interval 1;
	flags DELTAMODE;
	file "gen/MG_2_GFA_status.csv";
};

// This will be the same values as the GFA loads at node_101_1 below
object recorder {
	name recorder_MG_3_freq;
	parent load_100; //node_101;
	property "GFA_status,measured_frequency";
	interval 1;
	flags DELTAMODE;
	file "gen/MG_3_GFA_status.csv";
};

object recorder {
        name recorder_MG3_76_freq;
        parent load_76;
        property "GFA_status,measured_frequency";
        interval 1;
        flags DELTAMODE;
        file "gen/MG_3_node_76_freq.csv";
}




// XXXXXXXXXXXXXXXXXXXXXXXXXXXXXXXXXXXXXXXXXXXXXXXXX
// Switch Recorders
// XXXXXXXXXXXXXXXXXXXXXXXXXXXXXXXXXXXXXXXXXXXXXXXXX

 object recorder {
	name recorder_microgrid_switch0;
	parent microgrid_switch0;
	file "switch/microgrid_switch0.csv";
	property phase_A_state,phase_B_state,phase_C_state;
	flags DELTAMODE;
	interval 1;
};

 object recorder {
	name recorder_microgrid_switch1;
	parent microgrid_switch1;
	file "switch/microgrid_switch1.csv";
	property phase_A_state,phase_B_state,phase_C_state,current_in_A, current_in_B, current_in_C;
	flags DELTAMODE;
	interval 1;
};

 object recorder {
	name recorder_microgrid_switch2;
	parent microgrid_switch2;
	file "switch/microgrid_switch2.csv";
	property status,phase_A_state,phase_B_state,phase_C_state,current_out_A;
	flags DELTAMODE;
	interval 1;
};
	
 object recorder {
	name recorder_microgrid_switch3;
	parent microgrid_switch3;
	file "switch/microgrid_switch3.csv";
	property status,phase_A_state,phase_B_state,phase_C_state;
	flags DELTAMODE;
	interval 1;
};

object recorder {
        name recorder_switch_450-451;
        parent switch_450-451;
        file "switch/switch_450-451.csv";
        property status,phase_A_state,phase_B_state,phase_C_state;
        flags DELTAMODE;
        interval 1;
};
	
 object recorder {
	name recorder_microgrid_switch4;
	parent microgrid_switch4;
	file "switch/microgrid_switch4.csv";
	property status,current_out_A,current_out_B,current_out_C,power_out_A,power_out_B,power_out_C,phase_A_state,phase_B_state,phase_C_state;
	flags DELTAMODE;
	interval 1;
	file "switch/Switch_151_300.csv";
};

object recorder {
	name recorder_switch_76-761;
	parent switch_76-761;
	file "switch/switch_76-761.csv";
	property current_out_A,current_out_B,current_out_C, phase_A_state,phase_B_state,phase_C_state;
	flags DELTAMODE;
	interval 1;
};

object recorder {
	name recorder_switch_100-101;
	parent switch_100-101;
	file "switch/switch_100-101.csv";
	property current_out_A,current_out_B,current_out_C, phase_A_state,phase_B_state,phase_C_state;
	flags DELTAMODE;
	interval 1;
};

// XXXXXXXXXXXXXXXXXXXXXXXXXXXXXXXXXXXXXXXXXXXXXXXXX
// Pref Recorders